matpower_cases/case_SCE47.m
function mpc = case_tree
%% MATPOWER Case Format : Version 2
mpc.version = '2';

%%-----  Power Flow Data  -----%%
%% system MVA base
mpc.baseMVA = 1;

%% bus data
%	bus_i	type	Pd	Qd	Gs	Bs	area	Vm	Va	baseKV	zone	Vmax	Vmin
mpc.bus = [
	1	3	0	0	0	0	1	1	0	1	1	100	0;
	2	1	0	0	0	0	1	1	0	1	1	100	0;
	3	1	0	0	0	0	1	1	0	1	1	100	0;
    4	1	0	0	0	0	1	1	0	1	1	100	0;
    5	1	0	0	0	0	1	1	0	1	1	100	0;
    6	1	0	0	0	0	1	1	0	1	1	100	0;
    7	1	0	0	0	0	1	1	0	1	1	100	0;
    8	1	0	0	0	0	1	1	0	1	1	100	0;
    9	1	0	0	0	0	1	1	0	1	1	100	0;
    10	1	0	0	0	0	1	1	0	1	1	100	0;
    11	1	0	0	0	0	1	1	0	1	1	100	0;
    12	1	0	0	0	0	1	1	0	1	1	100	0;
    13	1	0	0	0	0	1	1	0	1	1	100	0;
    14	1	0	0	0	0	1	1	0	1	1	100	0;
    15	1	0	0	0	0	1	1	0	1	1	100	0;
    16	1	0	0	0	0	1	1	0	1	1	100	0;
    17	1	0	0	0	0	1	1	0	1	1	100	0;
    18	1	0	0	0	0	1	1	0	1	1	100	0;
    19	1	0	0	0	0	1	1	0	1	1	100	0;
    20	1	0	0	0	0	1	1	0	1	1	100	0;
    21	1	0	0	0	0	1	1	0	1	1	100	0;
    22	1	0	0	0	0	1	1	0	1	1	100	0;
    23	1	0	0	0	0	1	1	0	1	1	100	0;
    24	1	0	0	0	0	1	1	0	1	1	100	0;
    25	1	0	0	0	0	1	1	0	1	1	100	0;
    26	1	0	0	0	0	1	1	0	1	1	100	0;
    27	1	0	0	0	0	1	1	0	1	1	100	0;
    28	1	0	0	0	0	1	1	0	1	1	100	0;
    29	1	0	0	0	0	1	1	0	1	1	100	0;
    30	1	0	0	0	0	1	1	0	1	1	100	0;
    31	1	0	0	0	0	1	1	0	1	1	100	0;
    32	1	0	0	0	0	1	1	0	1	1	100	0;
    33	1	0	0	0	0	1	1	0	1	1	100	0;
    34	1	0	0	0	0	1	1	0	1	1	100	0;
    35	1	0	0	0	0	1	1	0	1	1	100	0;
    36	1	0	0	0	0	1	1	0	1	1	100	0;
    37	1	0	0	0	0	1	1	0	1	1	100	0;
    38	1	0	0	0	0	1	1	0	1	1	100	0;
    39	1	0	0	0	0	1	1	0	1	1	100	0;
    40	1	0	0	0	0	1	1	0	1	1	100	0;
    41	1	0	0	0	0	1	1	0	1	1	100	0;
    42	1	0	0	0	0	1	1	0	1	1	100	0;
    43	1	0	0	0	0	1	1	0	1	1	100	0;
    44	1	0	0	0	0	1	1	0	1	1	100	0;
    45	1	0	0	0	0	1	1	0	1	1	100	0;
    46	1	0	0	0	0	1	1	0	1	1	100	0;
    47	1	0	0	0	0	1	1	0	1	1	100	0;
];

%% generator data
%	bus	Pg	Qg	Qmax	Qmin	Vg	mBase	status	Pmax	Pmin	Pc1	Pc2	Qc1min	Qc1max	Qc2min	Qc2max	ramp_agc	ramp_10	ramp_30	ramp_q	apf
mpc.gen = [
    1	0	0	100	-100	1	100	1	100	-100	0	0	0	0	0	0	0	0	0	0	0;
];

%% branch data
%	fbus	tbus	r	x	b	rateA	rateB	rateC	ratio	angle	status	angmin	angmax
mpc.branch = [
    1	2	0.259	0	0	0	0	0	0	0	1	0	0;
	2	3	0.031	0	0	0	0	0	0	0	1	0	0;
    2	13	0.0920	0	0	0	0	0	0	0	1	0	0;
    3	4	0.046	0	0	0	0	0	0	0	1	0	0;
    3	14	0.092	0	0	0	0	0	0	0	1	0	0;
    3	15	0.214	0	0	0	0	0	0	0	1	0	0;
    4	5	0.107	0	0	0	0	0	0	0	1	0	0;
    4	20	0.336	0	0	0	0	0	0	0	1	0	0;
    5	6	0.015	0	0	0	0	0	0	0	1	0	0;
    5	26	0.061	0	0	0	0	0	0	0	1	0	0;
    6	7	0.031	0	0	0	0	0	0	0	1	0	0;
    6	27	0.168	0	0	0	0	0	0	0	1	0	0;
    7	8	0.015	0	0	0	0	0	0	0	1	0	0;
    7	32	0.076	0	0	0	0	0	0	0	1	0	0;
    8	9	0.031	0	0	0	0	0	0	0	1	0	0;
    8	35	0.076	0	0	0	0	0	0	0	1	0	0;
    8	39	0.244	0	0	0	0	0	0	0	1	0	0;
    8	40	0.046	0	0	0	0	0	0	0	1	0	0;
    8	41	0.107	0	0	0	0	0	0	0	1	0	0;
    9	10	0.015	0	0	0	0	0	0	0	1	0	0;
    9	42	0.153	0	0	0	0	0	0	0	1	0	0;
    10	11	0.107	0	0	0	0	0	0	0	1	0	0;
    10	46	0.229	0	0	0	0	0	0	0	1	0	0;
    11	12	0.076	0	0	0	0	0	0	0	1	0	0;
    11	47	0.031	0	0	0	0	0	0	0	1	0	0;
    15	16	0.107	0	0	0	0	0	0	0	1	0	0;
    15	18	0.046	0	0	0	0	0	0	0	1	0	0;
    16	17	0.0920       0	0	0	0	0	0	0	1	0	0;
    18	19	0.0920       0	0	0	0	0	0	0	1	0	0;
    20	21	0.122	0	0	0	0	0	0	0	1	0	0;
    20	25	0.214	0	0	0	0	0	0	0	1	0	0;
    21	22	0.198	0	0	0	0	0	0	0	1	0	0;
    21	24	0.0920       0	0	0	0	0	0	0	1	0	0;
    22	23	0.0920       0	0	0	0	0	0	0	1	0	0;
    27	28	0.107	0	0	0	0	0	0	0	1	0	0;
    27	31	0.046	0	0	0	0	0	0	0	1	0	0;
    28	29	0.107	0	0	0	0	0	0	0	1	0	0;
    29	30	0.061	0	0	0	0	0	0	0	1	0	0;
    32	33	0.046	0	0	0	0	0	0	0	1	0	0;
    33	34	0.031	0	0	0	0	0	0	0	1	0	0;
    35	36	0.076	0	0	0	0	0	0	0	1	0	0;
    35	37	0.076	0	0	0	0	0	0	0	1	0	0;
    35	38	0.107	0	0	0	0	0	0	0	1	0	0;
    42	43	0.061	0	0	0	0	0	0	0	1	0	0;
    43	44	0.061	0	0	0	0	0	0	0	1	0	0;
    43	45	0.061	0	0	0	0	0	0	0	1	0	0;
];
